<?xml version="1.0" encoding="UTF-8"?>

<!-- generated on 2023-09-25 11:07:29 by Eclipse SUMO duarouter Version 1.14.1
<configuration xmlns:xsi="http://www.w3.org/2001/XMLSchema-instance" xsi:noNamespaceSchemaLocation="http://sumo.dlr.de/xsd/duarouterConfiguration.xsd">

    <input>
        <net-file value="C:\Users\mirko\OneDrive\simulacao\ufn.net.xml"/>
        <route-files value="C:\Users\mirko\OneDrive\simulacao\ufn.trips.xml"/>
    </input>

    <output>
        <output-file value="C:\Users\mirko\OneDrive\simulacao\ufn.rou.xml"/>
    </output>

</configuration>
-->

<routes xmlns:xsi="http://www.w3.org/2001/XMLSchema-instance" xsi:noNamespaceSchemaLocation="http://sumo.dlr.de/xsd/routes_file.xsd">
    <vehicle id="0" depart="0.00">
        <route edges="368091971#0 368091971#1 360935210#0 360935210#1 988835218 360935204#0 360935204#1 360935206 193133882"/>
    </vehicle>
    <vehicle id="1" depart="1.00">
        <route edges="360935203#0 360935203#1 988835218 360935204#0 360935204#1 360935206 360938627#0 360938627#1 231292994#0 231292994#1 231292994#2"/>
    </vehicle>
    <vehicle id="6" depart="6.00">
        <route edges="226668206#0 226668206#1 226668206#2 360935206 360938627#0 360938627#1 231292994#0 231292994#1"/>
    </vehicle>
    <vehicle id="7" depart="7.00">
        <route edges="368091971#1 360935210#0"/>
    </vehicle>
    <vehicle id="9" depart="9.00">
        <route edges="980733855#1 360935210#0 360935210#1 988835218 360935204#0 360935204#1 360935206 193133882"/>
    </vehicle>
    <vehicle id="11" depart="11.00">
        <route edges="360935204#0 360935204#1 360935206 360938627#0 360938627#1 231292994#0"/>
    </vehicle>
    <vehicle id="13" depart="13.00">
        <route edges="226668206#2"/>
    </vehicle>
    <vehicle id="15" depart="15.00">
        <route edges="980733855#1 360935210#0 360935210#1 988835218 360935204#0 360935204#1 360935206 360938627#0 360938627#1 231292993 980733855#0"/>
    </vehicle>
    <vehicle id="16" depart="16.00">
        <route edges="360938627#0 360938627#1 231292993 980733855#0 980733855#1 360935210#0 360935210#1 988835218"/>
    </vehicle>
    <vehicle id="17" depart="17.00">
        <route edges="360935204#1 360935206 360938627#0 360938627#1 231292993 980733855#0 980733855#1 360935210#0 360935210#1"/>
    </vehicle>
    <vehicle id="22" depart="22.00">
        <route edges="226668206#2 360935206 360938627#0 360938627#1 231292994#0 231292994#1 231292994#2"/>
    </vehicle>
    <vehicle id="23" depart="23.00">
        <route edges="226668206#2 360935206 360938627#0 360938627#1 231292993 980733855#0 980733855#1 360935200"/>
    </vehicle>
    <vehicle id="24" depart="24.00">
        <route edges="368091971#0 368091971#1 360935210#0 360935210#1 988835218 360935204#0"/>
    </vehicle>
    <vehicle id="25" depart="25.00">
        <route edges="360935204#1 360935206 360938627#0 360938627#1 231292994#0 231292994#1 231292994#2"/>
    </vehicle>
    <vehicle id="26" depart="26.00">
        <route edges="360935203#0 360935203#1 982044004#0 982044004#1 982044004#2 982044004#3 982044004#4"/>
    </vehicle>
    <vehicle id="27" depart="27.00">
        <route edges="368091971#1 360935210#0 360935210#1 988835218 360935204#0 360935204#1 360935206 360938627#0"/>
    </vehicle>
    <vehicle id="30" depart="30.00">
        <route edges="988835218 360935204#0 360935204#1 360935206 360938627#0 360938627#1"/>
    </vehicle>
    <vehicle id="34" depart="34.00">
        <route edges="360935203#1 988835218 360935204#0 360935204#1 360935206 360938627#0 360938627#1 231292994#0 231292994#1 231292994#2 231292994#3"/>
    </vehicle>
    <vehicle id="37" depart="37.00">
        <route edges="368091971#1 360935210#0 360935210#1 988835218 360935204#0 360935204#1"/>
    </vehicle>
    <vehicle id="39" depart="39.00">
        <route edges="360935203#0 360935203#1 988835218 360935204#0 360935204#1 360935206 360938627#0 360938627#1 231292994#0 231292994#1 231292994#2 231292994#3"/>
    </vehicle>
    <vehicle id="40" depart="40.00">
        <route edges="360938627#0 360938627#1 231292994#0 231292994#1 231292994#2 231292994#3"/>
    </vehicle>
    <vehicle id="41" depart="41.00">
        <route edges="360938627#1 231292993 980733855#0 980733855#1 360935210#0 360935210#1 982044004#0 982044004#1 982044004#2 982044004#3"/>
    </vehicle>
    <vehicle id="43" depart="43.00">
        <route edges="988835218 360935204#0 360935204#1 360935206"/>
    </vehicle>
    <vehicle id="45" depart="45.00">
        <route edges="231292993 980733855#0 980733855#1 360935210#0 360935210#1 988835218 360935204#0 360935204#1 360935206 360938627#0 360938627#1"/>
    </vehicle>
    <vehicle id="46" depart="46.00">
        <route edges="980733855#1 360935210#0 360935210#1 988835218 360935204#0 360935204#1 360935205#0"/>
    </vehicle>
    <vehicle id="47" depart="47.00">
        <route edges="226668206#1 226668206#2 360935206 360938627#0 360938627#1 231292993 980733855#0 980733855#1 360935210#0 360935210#1 988835218 360935204#0 360935204#1"/>
    </vehicle>
    <vehicle id="48" depart="48.00">
        <route edges="988835218 360935204#0 360935204#1 360935206 360938627#0 360938627#1 231292993 980733855#0 980733855#1 360935210#0"/>
    </vehicle>
    <vehicle id="49" depart="49.00">
        <route edges="988835218 360935204#0 360935204#1 360935206 360938627#0 360938627#1 231292993 980733855#0 980733855#1 360935210#0 360935210#1 982044004#0 982044004#1"/>
    </vehicle>
    <vehicle id="51" depart="51.00">
        <route edges="396388569#0 396388569#1 231292993 980733855#0 980733855#1 360935210#0"/>
    </vehicle>
    <vehicle id="52" depart="52.00">
        <route edges="360935203#0 360935203#1 988835218 360935204#0 360935204#1 360935206 360938627#0 360938627#1"/>
    </vehicle>
    <vehicle id="53" depart="53.00">
        <route edges="231292993 980733855#0 980733855#1 360935210#0 360935210#1 988835218 360935204#0 360935204#1 360935205#0"/>
    </vehicle>
    <vehicle id="54" depart="54.00">
        <route edges="360935206 360938627#0 360938627#1 231292993 980733855#0 980733855#1 360935210#0 360935210#1 982044004#0 982044004#1 982044004#2 982044004#3 982044004#4"/>
    </vehicle>
    <vehicle id="56" depart="56.00">
        <route edges="360935210#1 988835218 360935204#0 360935204#1 360935206 360938627#0 360938627#1 231292994#0 231292994#1"/>
    </vehicle>
    <vehicle id="57" depart="57.00">
        <route edges="982044004#2"/>
    </vehicle>
    <vehicle id="58" depart="58.00">
        <route edges="360935203#1 988835218 360935204#0 360935204#1 360935206 360938627#0 360938627#1"/>
    </vehicle>
    <vehicle id="59" depart="59.00">
        <route edges="368091971#0 368091971#1 360935210#0 360935210#1 988835218 360935204#0 360935204#1 360935206 360938627#0 360938627#1 231292994#0"/>
    </vehicle>
    <vehicle id="60" depart="60.00">
        <route edges="980733855#0 980733855#1 360935210#0"/>
    </vehicle>
    <vehicle id="61" depart="61.00">
        <route edges="980733855#0 980733855#1 360935210#0"/>
    </vehicle>
    <vehicle id="63" depart="63.00">
        <route edges="226668206#0 226668206#1 226668206#2 360935206 360938627#0 360938627#1 231292993 980733855#0 980733855#1 360935210#0 360935210#1 982044004#0 982044004#1 982044004#2 982044004#3"/>
    </vehicle>
    <vehicle id="64" depart="64.00">
        <route edges="982044004#1"/>
    </vehicle>
    <vehicle id="66" depart="66.00">
        <route edges="982044004#1 982044004#2 982044004#3 982044004#4"/>
    </vehicle>
    <vehicle id="67" depart="67.00">
        <route edges="226668206#2 360935206"/>
    </vehicle>
    <vehicle id="68" depart="68.00">
        <route edges="226668206#1 226668206#2 360935206 360938627#0 360938627#1 231292993 980733855#0 980733855#1"/>
    </vehicle>
    <vehicle id="69" depart="69.00">
        <route edges="980733855#0 980733855#1 360935210#0 360935210#1 988835218 360935204#0 360935204#1 360935206 360938627#0 360938627#1 231292993"/>
    </vehicle>
    <vehicle id="70" depart="70.00">
        <route edges="360935210#0"/>
    </vehicle>
    <vehicle id="71" depart="71.00">
        <route edges="360935203#0 360935203#1 982044004#0 982044004#1 982044004#2"/>
    </vehicle>
    <vehicle id="73" depart="73.00">
        <route edges="360938627#0 360938627#1 231292993 980733855#0"/>
    </vehicle>
    <vehicle id="75" depart="75.00">
        <route edges="988835218 360935204#0 360935204#1 360935206 360938627#0 360938627#1"/>
    </vehicle>
    <vehicle id="76" depart="76.00">
        <route edges="360935206 360938627#0 360938627#1 231292993 980733855#0 980733855#1 360935210#0"/>
    </vehicle>
    <vehicle id="77" depart="77.00">
        <route edges="231292993 980733855#0 980733855#1 360935210#0 360935210#1 988835218 360935204#0 360935204#1 360935206 360938627#0 360938627#1 231292994#0 231292994#1 231292994#2"/>
    </vehicle>
    <vehicle id="78" depart="78.00">
        <route edges="360935204#0 360935204#1 360935206 360938627#0"/>
    </vehicle>
    <vehicle id="79" depart="79.00">
        <route edges="231292994#2"/>
    </vehicle>
    <vehicle id="80" depart="80.00">
        <route edges="226668206#1 226668206#2 360935206 360938627#0 360938627#1"/>
    </vehicle>
    <vehicle id="86" depart="86.00">
        <route edges="360935210#0 360935210#1 988835218 360935204#0 360935204#1 360935206 360938627#0 360938627#1 231292993 980733855#0 980733855#1"/>
    </vehicle>
    <vehicle id="87" depart="87.00">
        <route edges="980733855#1 360935210#0 360935210#1 988835218 360935204#0 360935204#1 360935206 360938627#0 360938627#1 231292994#0 231292994#1"/>
    </vehicle>
    <vehicle id="88" depart="88.00">
        <route edges="226668206#2 360935205#0"/>
    </vehicle>
    <vehicle id="89" depart="89.00">
        <route edges="360935205#0 360935205#1"/>
    </vehicle>
    <vehicle id="97" depart="97.00">
        <route edges="360935206 360938627#0 360938627#1 231292993 980733855#0 980733855#1 360935210#0 360935210#1 982044004#0 982044004#1"/>
    </vehicle>
    <vehicle id="99" depart="99.00">
        <route edges="988835218 360935204#0 360935204#1 360935206 360938627#0 360938627#1 231292993 980733855#0 980733855#1 360935210#0 360935210#1 982044004#0 982044004#1"/>
    </vehicle>
    <vehicle id="100" depart="100.00">
        <route edges="988835218 360935204#0 360935204#1 360935206 360938627#0 360938627#1 231292993 980733855#0 980733855#1 360935210#0 360935210#1 982044004#0 982044004#1 982044004#2 982044004#3"/>
    </vehicle>
    <vehicle id="102" depart="102.00">
        <route edges="360935210#0 360935210#1 988835218 360935204#0 360935204#1 360935206 360938627#0 360938627#1 231292994#0 231292994#1 231292994#2"/>
    </vehicle>
    <vehicle id="104" depart="104.00">
        <route edges="360935204#1 360935206 360938627#0 360938627#1 231292993 980733855#0 980733855#1 360935210#0 360935210#1 988835218"/>
    </vehicle>
    <vehicle id="105" depart="105.00">
        <route edges="360935203#0 360935203#1 988835218 360935204#0 360935204#1 360935206 360938627#0 360938627#1 231292993 980733855#0 980733855#1"/>
    </vehicle>
    <vehicle id="106" depart="106.00">
        <route edges="360935206 360938627#0 360938627#1 231292993 980733855#0 980733855#1 360935210#0 360935210#1 988835218 360935204#0 360935204#1 360935205#0"/>
    </vehicle>
    <vehicle id="110" depart="110.00">
        <route edges="988835218 360935204#0 360935204#1 360935206 360938627#0 360938627#1 231292993 980733855#0 980733855#1 360935210#0 360935210#1"/>
    </vehicle>
    <vehicle id="111" depart="111.00">
        <route edges="360938627#0 360938627#1 231292993 980733855#0"/>
    </vehicle>
    <vehicle id="112" depart="112.00">
        <route edges="226668206#1 226668206#2 360935206 360938627#0 360938627#1 231292993 980733855#0 980733855#1 360935210#0 360935210#1"/>
    </vehicle>
    <vehicle id="113" depart="113.00">
        <route edges="360935210#1 982044004#0 982044004#1"/>
    </vehicle>
    <vehicle id="115" depart="115.00">
        <route edges="226668206#2 360935206 360938627#0 360938627#1 231292994#0 231292994#1"/>
    </vehicle>
    <vehicle id="119" depart="119.00">
        <route edges="360938627#1 231292993 980733855#0 980733855#1 360935210#0 360935210#1 988835218 360935204#0 360935204#1 360935206 360938627#0"/>
    </vehicle>
    <vehicle id="121" depart="121.00">
        <route edges="360935210#1 982044004#0 982044004#1 982044004#2 982044004#3 982044004#4"/>
    </vehicle>
    <vehicle id="124" depart="124.00">
        <route edges="368091971#1 360935200"/>
    </vehicle>
    <vehicle id="125" depart="125.00">
        <route edges="360935203#1 988835218 360935204#0 360935204#1 360935206 360938627#0 360938627#1 231292993 980733855#0"/>
    </vehicle>
    <vehicle id="126" depart="126.00">
        <route edges="226668206#2 360935205#0 360935205#1"/>
    </vehicle>
    <vehicle id="127" depart="127.00">
        <route edges="988835218"/>
    </vehicle>
    <vehicle id="128" depart="128.00">
        <route edges="226668206#2 360935206 360938627#0 360938627#1 231292994#0 231292994#1 231292994#2"/>
    </vehicle>
    <vehicle id="129" depart="129.00">
        <route edges="360935203#0 360935203#1 982044004#0 982044004#1 982044004#2 982044004#3 982044004#4"/>
    </vehicle>
    <vehicle id="130" depart="130.00">
        <route edges="982044004#1 982044004#2"/>
    </vehicle>
    <vehicle id="131" depart="131.00">
        <route edges="360935204#1 360935206 360938627#0 360938627#1 231292994#0"/>
    </vehicle>
    <vehicle id="133" depart="133.00">
        <route edges="368091971#0 368091971#1 360935210#0 360935210#1 988835218"/>
    </vehicle>
    <vehicle id="134" depart="134.00">
        <route edges="368091971#1 360935210#0 360935210#1 988835218 360935204#0 360935204#1 360935206 193133882"/>
    </vehicle>
    <vehicle id="135" depart="135.00">
        <route edges="980733855#1 360935200"/>
    </vehicle>
    <vehicle id="136" depart="136.00">
        <route edges="368091971#1 360935210#0 360935210#1 982044004#0 982044004#1 982044004#2 982044004#3 982044004#4"/>
    </vehicle>
    <vehicle id="137" depart="137.00">
        <route edges="231292993"/>
    </vehicle>
    <vehicle id="138" depart="138.00">
        <route edges="226668206#2 360935206 360938627#0 360938627#1 231292993 980733855#0 980733855#1 360935210#0 360935210#1"/>
    </vehicle>
    <vehicle id="139" depart="139.00">
        <route edges="360935203#0 360935203#1 988835218 360935204#0 360935204#1 360935206 360938627#0"/>
    </vehicle>
    <vehicle id="140" depart="140.00">
        <route edges="396388569#1 231292994#0 231292994#1"/>
    </vehicle>
    <vehicle id="141" depart="141.00">
        <route edges="368091971#0 368091971#1 360935210#0 360935210#1 988835218 360935204#0 360935204#1 360935206 360938627#0 360938627#1 231292994#0 231292994#1 231292994#2 231292994#3"/>
    </vehicle>
    <vehicle id="142" depart="142.00">
        <route edges="360935210#0 360935210#1 982044004#0 982044004#1 982044004#2 982044004#3"/>
    </vehicle>
    <vehicle id="145" depart="145.00">
        <route edges="226668206#0 226668206#1 226668206#2 360935206 360938627#0 360938627#1 231292993 980733855#0 980733855#1"/>
    </vehicle>
    <vehicle id="146" depart="146.00">
        <route edges="368091971#0 368091971#1 360935210#0 360935210#1 988835218 360935204#0 360935204#1 360935206 360938627#0 360938627#1 231292994#0 231292994#1 231292994#2 231292994#3"/>
    </vehicle>
    <vehicle id="147" depart="147.00">
        <route edges="396388569#1 231292993 980733855#0 980733855#1 360935210#0"/>
    </vehicle>
    <vehicle id="149" depart="149.00">
        <route edges="226668206#2 360935206 360938627#0 360938627#1 231292993 980733855#0 980733855#1 360935210#0 360935210#1 982044004#0 982044004#1 982044004#2"/>
    </vehicle>
    <vehicle id="153" depart="153.00">
        <route edges="360935203#1 982044004#0 982044004#1 982044004#2 982044004#3"/>
    </vehicle>
    <vehicle id="154" depart="154.00">
        <route edges="980733855#1 360935210#0 360935210#1 982044004#0 982044004#1"/>
    </vehicle>
    <vehicle id="157" depart="157.00">
        <route edges="980733855#0 980733855#1 360935210#0 360935210#1 982044004#0 982044004#1 982044004#2"/>
    </vehicle>
    <vehicle id="161" depart="161.00">
        <route edges="980733855#1 360935210#0 360935210#1 982044004#0 982044004#1 982044004#2"/>
    </vehicle>
    <vehicle id="162" depart="162.00">
        <route edges="226668206#0 226668206#1 226668206#2 360935206 360938627#0 360938627#1 231292993 980733855#0"/>
    </vehicle>
    <vehicle id="163" depart="163.00">
        <route edges="360935204#0 360935204#1 360935206 360938627#0 360938627#1 231292993 980733855#0 980733855#1 360935210#0 360935210#1 982044004#0 982044004#1 982044004#2 982044004#3"/>
    </vehicle>
    <vehicle id="164" depart="164.00">
        <route edges="980733855#1 360935210#0 360935210#1 982044004#0 982044004#1 982044004#2"/>
    </vehicle>
    <vehicle id="165" depart="165.00">
        <route edges="980733855#1 360935210#0 360935210#1 988835218 360935204#0 360935204#1 360935206 360938627#0 360938627#1 231292994#0 231292994#1 231292994#2 231292994#3"/>
    </vehicle>
    <vehicle id="166" depart="166.00">
        <route edges="980733855#1 360935210#0 360935210#1 988835218 360935204#0 360935204#1 360935206 360938627#0 360938627#1 231292993"/>
    </vehicle>
    <vehicle id="167" depart="167.00">
        <route edges="982044004#1"/>
    </vehicle>
    <vehicle id="169" depart="169.00">
        <route edges="360935206 360938627#0 360938627#1 231292993 980733855#0 980733855#1 360935200"/>
    </vehicle>
    <vehicle id="170" depart="170.00">
        <route edges="980733855#1 360935210#0 360935210#1 988835218 360935204#0 360935204#1 360935206 360938627#0 360938627#1 231292994#0 231292994#1 231292994#2"/>
    </vehicle>
    <vehicle id="171" depart="171.00">
        <route edges="226668206#0 226668206#1 226668206#2 360935206 360938627#0 360938627#1 231292994#0 231292994#1"/>
    </vehicle>
    <vehicle id="172" depart="172.00">
        <route edges="360935204#0 360935204#1 360935206 360938627#0 360938627#1 231292993 980733855#0 980733855#1 360935210#0 360935210#1 982044004#0 982044004#1 982044004#2"/>
    </vehicle>
    <vehicle id="173" depart="173.00">
        <route edges="988835218 360935204#0 360935204#1 360935206 360938627#0 360938627#1 231292993 980733855#0 980733855#1 360935200"/>
    </vehicle>
    <vehicle id="174" depart="174.00">
        <route edges="368091971#0 368091971#1 360935210#0 360935210#1 988835218 360935204#0 360935204#1"/>
    </vehicle>
    <vehicle id="175" depart="175.00">
        <route edges="988835218 360935204#0 360935204#1 360935206 360938627#0 360938627#1 231292993 980733855#0 980733855#1 360935210#0"/>
    </vehicle>
    <vehicle id="177" depart="177.00">
        <route edges="988835218 360935204#0 360935204#1 360935206 360938627#0 360938627#1 231292994#0 231292994#1"/>
    </vehicle>
    <vehicle id="179" depart="179.00">
        <route edges="231292993 980733855#0 980733855#1 360935210#0 360935210#1 988835218 360935204#0 360935204#1 360935205#0"/>
    </vehicle>
    <vehicle id="181" depart="181.00">
        <route edges="360938627#1 231292993 980733855#0 980733855#1 360935210#0 360935210#1 988835218 360935204#0 360935204#1 360935206"/>
    </vehicle>
    <vehicle id="182" depart="182.00">
        <route edges="360935204#1 360935206 360938627#0 360938627#1 231292993 980733855#0 980733855#1 360935210#0 360935210#1"/>
    </vehicle>
    <vehicle id="184" depart="184.00">
        <route edges="226668206#0 226668206#1 226668206#2 360935206 360938627#0 360938627#1 231292993 980733855#0 980733855#1 360935210#0 360935210#1 982044004#0 982044004#1 982044004#2 982044004#3"/>
    </vehicle>
    <vehicle id="189" depart="189.00">
        <route edges="360935203#1 982044004#0 982044004#1"/>
    </vehicle>
    <vehicle id="190" depart="190.00">
        <route edges="396388569#1 231292993 980733855#0 980733855#1 360935200"/>
    </vehicle>
    <vehicle id="191" depart="191.00">
        <route edges="360935203#1 988835218 360935204#0 360935204#1"/>
    </vehicle>
    <vehicle id="193" depart="193.00">
        <route edges="231292993 980733855#0 980733855#1 360935210#0 360935210#1 988835218 360935204#0 360935204#1 360935205#0"/>
    </vehicle>
    <vehicle id="196" depart="196.00">
        <route edges="360935203#1 988835218 360935204#0 360935204#1 360935206 360938627#0 360938627#1 231292993 980733855#0 980733855#1 360935210#0"/>
    </vehicle>
    <vehicle id="197" depart="197.00">
        <route edges="226668206#0 226668206#1 226668206#2 360935206 360938627#0 360938627#1 231292993 980733855#0 980733855#1 360935200"/>
    </vehicle>
    <vehicle id="198" depart="198.00">
        <route edges="360935206 360938627#0 360938627#1 231292993 980733855#0 980733855#1 360935210#0 360935210#1"/>
    </vehicle>
    <vehicle id="199" depart="199.00">
        <route edges="368091971#1 360935210#0 360935210#1 988835218 360935204#0 360935204#1 360935205#0 360935205#1"/>
    </vehicle>
</routes>
