<?xml version="1.0" encoding="UTF-8"?>

<!-- generated on 2023-09-25 10:43:07 by Eclipse SUMO netconvert Version 1.14.1
<configuration xmlns:xsi="http://www.w3.org/2001/XMLSchema-instance" xsi:noNamespaceSchemaLocation="http://sumo.dlr.de/xsd/netconvertConfiguration.xsd">

    <input>
        <osm-files value="C:\Users\mirko\OneDrive\Área%20de%20Trabalho\SUMO-UFN\ufn.osm"/>
    </input>

    <output>
        <output-file value="C:\Users\mirko\OneDrive\Área%20de%20Trabalho\SUMO-UFN\ufn.net.xml"/>
    </output>

    <projection>
        <proj.utm value="true"/>
    </projection>

</configuration>
-->

<net version="1.9" junctionCornerDetail="5" limitTurnSpeed="5.50" xmlns:xsi="http://www.w3.org/2001/XMLSchema-instance" xsi:noNamespaceSchemaLocation="http://sumo.dlr.de/xsd/net_file.xsd">

    <location netOffset="-227700.91,3287363.43" convBoundary="0.00,0.00,575.94,409.18" origBoundary="-53.813836,-29.686579,-53.807890,-29.680734" projParameter="+proj=utm +zone=22 +ellps=WGS84 +datum=WGS84 +units=m +no_defs"/>

    <type id="highway.bridleway" priority="1" numLanes="1" speed="2.78" allow="pedestrian" oneway="1" width="2.00"/>
    <type id="highway.bus_guideway" priority="1" numLanes="1" speed="27.78" allow="bus" oneway="1"/>
    <type id="highway.cycleway" priority="1" numLanes="1" speed="5.56" allow="bicycle" oneway="0" width="1.00"/>
    <type id="highway.footway" priority="1" numLanes="1" speed="2.78" allow="pedestrian" oneway="1" width="2.00"/>
    <type id="highway.ford" priority="1" numLanes="1" speed="2.78" allow="army" oneway="0"/>
    <type id="highway.living_street" priority="2" numLanes="1" speed="2.78" disallow="tram rail_urban rail rail_electric rail_fast ship" oneway="0"/>
    <type id="highway.motorway" priority="14" numLanes="2" speed="39.44" allow="private emergency authority army vip passenger hov taxi bus coach delivery truck trailer motorcycle evehicle custom1 custom2" oneway="1"/>
    <type id="highway.motorway_link" priority="9" numLanes="1" speed="22.22" allow="private emergency authority army vip passenger hov taxi bus coach delivery truck trailer motorcycle evehicle custom1 custom2" oneway="1"/>
    <type id="highway.path" priority="1" numLanes="1" speed="5.56" allow="pedestrian bicycle" oneway="0" width="2.00"/>
    <type id="highway.pedestrian" priority="1" numLanes="1" speed="2.78" allow="pedestrian" oneway="1" width="2.00"/>
    <type id="highway.primary" priority="12" numLanes="2" speed="27.78" disallow="tram rail_urban rail rail_electric rail_fast ship" oneway="0"/>
    <type id="highway.primary_link" priority="7" numLanes="1" speed="22.22" disallow="tram rail_urban rail rail_electric rail_fast ship" oneway="0"/>
    <type id="highway.raceway" priority="15" numLanes="2" speed="83.33" allow="vip" oneway="0"/>
    <type id="highway.residential" priority="3" numLanes="1" speed="13.89" disallow="tram rail_urban rail rail_electric rail_fast ship" oneway="0"/>
    <type id="highway.secondary" priority="11" numLanes="1" speed="27.78" disallow="tram rail_urban rail rail_electric rail_fast ship" oneway="0"/>
    <type id="highway.secondary_link" priority="6" numLanes="1" speed="22.22" disallow="tram rail_urban rail rail_electric rail_fast ship" oneway="0"/>
    <type id="highway.service" priority="1" numLanes="1" speed="5.56" allow="pedestrian delivery bicycle" oneway="0"/>
    <type id="highway.stairs" priority="1" numLanes="1" speed="1.39" allow="pedestrian" oneway="1" width="2.00"/>
    <type id="highway.step" priority="1" numLanes="1" speed="1.39" allow="pedestrian" oneway="1" width="2.00"/>
    <type id="highway.steps" priority="1" numLanes="1" speed="1.39" allow="pedestrian" oneway="1" width="2.00"/>
    <type id="highway.tertiary" priority="10" numLanes="1" speed="22.22" disallow="tram rail_urban rail rail_electric rail_fast ship" oneway="0"/>
    <type id="highway.tertiary_link" priority="5" numLanes="1" speed="22.22" disallow="tram rail_urban rail rail_electric rail_fast ship" oneway="0"/>
    <type id="highway.track" priority="1" numLanes="1" speed="5.56" allow="pedestrian motorcycle moped bicycle" oneway="0"/>
    <type id="highway.trunk" priority="13" numLanes="2" speed="27.78" disallow="pedestrian bicycle tram rail_urban rail rail_electric rail_fast ship" oneway="0"/>
    <type id="highway.trunk_link" priority="8" numLanes="1" speed="22.22" disallow="pedestrian bicycle tram rail_urban rail rail_electric rail_fast ship" oneway="0"/>
    <type id="highway.unclassified" priority="4" numLanes="1" speed="13.89" disallow="tram rail_urban rail rail_electric rail_fast ship" oneway="0"/>
    <type id="highway.unsurfaced" priority="1" numLanes="1" speed="8.33" disallow="tram rail_urban rail rail_electric rail_fast ship" oneway="0"/>
    <type id="railway.highspeed" priority="21" numLanes="1" speed="69.44" allow="rail_fast" oneway="1"/>
    <type id="railway.light_rail" priority="19" numLanes="1" speed="27.78" allow="rail_urban" oneway="1"/>
    <type id="railway.preserved" priority="16" numLanes="1" speed="27.78" allow="rail" oneway="1"/>
    <type id="railway.rail" priority="20" numLanes="1" speed="44.44" allow="rail" oneway="1"/>
    <type id="railway.subway" priority="18" numLanes="1" speed="27.78" allow="rail_urban" oneway="1"/>
    <type id="railway.tram" priority="17" numLanes="1" speed="13.89" allow="tram" oneway="1"/>

    <edge id=":10693954719_0" function="internal">
        <lane id=":10693954719_0_0" index="0" disallow="tram rail_urban rail rail_electric rail_fast ship" speed="22.22" length="5.00" shape="170.46,141.51 165.63,140.22"/>
        <lane id=":10693954719_0_1" index="1" disallow="tram rail_urban rail rail_electric rail_fast ship" speed="22.22" length="5.00" shape="171.29,138.42 166.46,137.13"/>
    </edge>
    <edge id=":10693954732_0" function="internal">
        <lane id=":10693954732_0_0" index="0" disallow="tram rail_urban rail rail_electric rail_fast ship" speed="22.22" length="5.00" shape="126.11,129.65 121.27,128.35"/>
        <lane id=":10693954732_0_1" index="1" disallow="tram rail_urban rail rail_electric rail_fast ship" speed="22.22" length="5.00" shape="126.94,126.56 122.10,125.26"/>
    </edge>
    <edge id=":10718046327_0" function="internal">
        <lane id=":10718046327_0_0" index="0" disallow="tram rail_urban rail rail_electric rail_fast ship" speed="22.22" length="5.05" shape="443.76,357.19 448.69,358.20"/>
        <lane id=":10718046327_0_1" index="1" disallow="tram rail_urban rail rail_electric rail_fast ship" speed="22.22" length="5.05" shape="443.10,360.32 448.07,361.34"/>
    </edge>
    <edge id=":2036500639_0" function="internal">
        <lane id=":2036500639_0_0" index="0" disallow="tram rail_urban rail rail_electric rail_fast ship" speed="22.22" length="11.10" shape="265.46,317.14 276.23,319.82"/>
        <lane id=":2036500639_0_1" index="1" disallow="tram rail_urban rail rail_electric rail_fast ship" speed="22.22" length="11.10" shape="264.69,320.25 275.45,322.93"/>
    </edge>
    <edge id=":2036500639_2" function="internal">
        <lane id=":2036500639_2_0" index="0" disallow="tram rail_urban rail rail_electric rail_fast ship" speed="6.52" length="8.98" shape="264.69,320.25 266.95,321.17 268.39,322.60 269.00,324.55 268.78,327.00"/>
    </edge>
    <edge id=":2037075267_0" function="internal">
        <lane id=":2037075267_0_0" index="0" disallow="tram rail_urban rail rail_electric rail_fast ship" speed="22.22" length="5.00" shape="413.80,350.83 418.73,351.84"/>
        <lane id=":2037075267_0_1" index="1" disallow="tram rail_urban rail rail_electric rail_fast ship" speed="22.22" length="5.00" shape="413.20,353.97 418.06,354.97"/>
    </edge>
    <edge id=":3723594331_0" function="internal">
        <lane id=":3723594331_0_0" index="0" disallow="tram rail_urban rail rail_electric rail_fast ship" speed="22.22" length="0.30" shape="529.60,379.21 529.89,379.29"/>
        <lane id=":3723594331_0_1" index="1" disallow="tram rail_urban rail rail_electric rail_fast ship" speed="22.22" length="0.30" shape="528.77,382.30 529.06,382.38"/>
    </edge>
    <edge id=":3799619815_0" function="internal">
        <lane id=":3799619815_0_0" index="0" allow="pedestrian delivery bicycle" speed="3.65" length="4.67" shape="90.59,345.68 89.66,344.58 89.50,343.70 90.10,343.05 91.48,342.61"/>
    </edge>
    <edge id=":3845893218_0" function="internal">
        <lane id=":3845893218_0_0" index="0" allow="pedestrian delivery bicycle" speed="5.15" length="5.14" shape="53.61,258.47 53.45,259.91 53.76,261.05 54.53,261.90 55.77,262.46"/>
    </edge>
    <edge id=":3845893218_1" function="internal">
        <lane id=":3845893218_1_0" index="0" allow="pedestrian delivery bicycle" speed="3.65" length="4.67" shape="53.61,258.47 52.55,259.44 51.68,259.64 50.99,259.07 50.50,257.71"/>
    </edge>
    <edge id=":3845893218_2" function="internal">
        <lane id=":3845893218_2_0" index="0" allow="pedestrian delivery bicycle" speed="5.00" length="5.04" shape="46.72,259.92 48.09,260.11 49.18,259.80 49.98,259.00 50.50,257.71"/>
    </edge>
    <edge id=":3845893218_3" function="internal">
        <lane id=":3845893218_3_0" index="0" disallow="tram rail_urban rail rail_electric rail_fast ship" speed="11.11" length="9.40" shape="46.72,259.92 55.77,262.46"/>
        <lane id=":3845893218_3_1" index="1" disallow="tram rail_urban rail rail_electric rail_fast ship" speed="11.11" length="9.40" shape="45.85,263.01 54.91,265.54"/>
    </edge>
    <edge id=":3845893464_0" function="internal">
        <lane id=":3845893464_0_0" index="0" allow="pedestrian delivery bicycle" speed="3.65" length="4.67" shape="160.67,198.90 159.59,199.85 158.72,200.04 158.04,199.45 157.57,198.08"/>
    </edge>
    <edge id=":3845893529_0" function="internal">
        <lane id=":3845893529_0_0" index="0" allow="pedestrian delivery bicycle" speed="3.65" length="4.67" shape="53.25,200.75 54.27,199.72 55.13,199.49 55.84,200.03 56.39,201.36"/>
    </edge>
    <edge id=":3851295066_0" function="internal">
        <lane id=":3851295066_0_0" index="0" allow="pedestrian delivery bicycle" speed="3.65" length="4.67" shape="452.50,292.96 451.54,291.88 451.35,291.01 451.94,290.33 453.30,289.86"/>
    </edge>
    <edge id=":3995880153_0" function="internal">
        <lane id=":3995880153_0_0" index="0" disallow="tram rail_urban rail rail_electric rail_fast ship" speed="13.89" length="9.40" shape="166.32,360.98 163.92,370.07"/>
    </edge>
    <edge id=":3995880153_1" function="internal">
        <lane id=":3995880153_1_0" index="0" allow="pedestrian delivery bicycle" speed="6.05" length="7.83" shape="166.32,360.98 165.42,363.60 164.33,365.35 163.06,366.21 161.60,366.20"/>
    </edge>
    <edge id=":3995880153_2" function="internal">
        <lane id=":3995880153_2_0" index="0" allow="pedestrian delivery bicycle" speed="6.15" length="7.80" shape="162.50,363.13 163.72,363.90 164.37,365.31 164.43,367.36 163.92,370.07"/>
    </edge>
    <edge id=":3995880153_3" function="internal">
        <lane id=":3995880153_3_0" index="0" allow="pedestrian delivery bicycle" speed="3.65" length="4.67" shape="162.50,363.13 163.43,364.24 163.59,365.12 162.98,365.77 161.60,366.20"/>
    </edge>
    <edge id=":3995883059_0" function="internal">
        <lane id=":3995883059_0_0" index="0" disallow="tram rail_urban rail rail_electric rail_fast ship" speed="11.11" length="0.10" shape="177.68,295.43 177.63,295.43"/>
        <lane id=":3995883059_0_1" index="1" disallow="tram rail_urban rail rail_electric rail_fast ship" speed="11.11" length="0.10" shape="176.89,298.54 176.96,298.56"/>
    </edge>
    <edge id=":3995883060_0" function="internal">
        <lane id=":3995883060_0_0" index="0" disallow="tram rail_urban rail rail_electric rail_fast ship" speed="11.11" length="1.24" shape="184.06,293.73 184.37,292.53"/>
    </edge>
    <edge id=":4017965087_0" function="internal">
        <lane id=":4017965087_0_0" index="0" allow="pedestrian delivery bicycle" speed="3.65" length="4.67" shape="562.90,299.31 563.88,300.36 564.09,301.23 563.51,301.92 562.16,302.42"/>
    </edge>
    <edge id=":5221756936_0" function="internal">
        <lane id=":5221756936_0_0" index="0" disallow="tram rail_urban rail rail_electric rail_fast ship" speed="13.89" length="0.58" shape="392.33,205.76 392.17,206.32"/>
        <lane id=":5221756936_0_1" index="1" disallow="tram rail_urban rail rail_electric rail_fast ship" speed="13.89" length="0.58" shape="395.41,206.61 395.26,207.16"/>
    </edge>
    <edge id=":5221756937_0" function="internal">
        <lane id=":5221756937_0_0" index="0" disallow="tram rail_urban rail rail_electric rail_fast ship" speed="22.22" length="0.70" shape="400.63,203.16 401.35,203.35"/>
        <lane id=":5221756937_0_1" index="1" disallow="tram rail_urban rail rail_electric rail_fast ship" speed="22.22" length="0.70" shape="401.52,200.09 402.17,200.26"/>
    </edge>
    <edge id=":5221756938_0" function="internal">
        <lane id=":5221756938_0_0" index="0" disallow="tram rail_urban rail rail_electric rail_fast ship" speed="13.89" length="1.09" shape="353.87,345.84 353.58,346.89"/>
        <lane id=":5221756938_0_1" index="1" disallow="tram rail_urban rail rail_electric rail_fast ship" speed="13.89" length="1.09" shape="356.95,346.69 356.67,347.73"/>
    </edge>
    <edge id=":5221756941_0" function="internal">
        <lane id=":5221756941_0_0" index="0" disallow="tram rail_urban rail rail_electric rail_fast ship" speed="22.22" length="0.30" shape="348.15,337.77 348.44,337.84"/>
        <lane id=":5221756941_0_1" index="1" disallow="tram rail_urban rail rail_electric rail_fast ship" speed="22.22" length="0.30" shape="347.37,340.87 347.66,340.94"/>
    </edge>
    <edge id=":5221797992_0" function="internal">
        <lane id=":5221797992_0_0" index="0" disallow="tram rail_urban rail rail_electric rail_fast ship" speed="22.22" length="0.93" shape="225.81,156.34 226.70,156.58"/>
        <lane id=":5221797992_0_1" index="1" disallow="tram rail_urban rail rail_electric rail_fast ship" speed="22.22" length="0.93" shape="226.63,153.25 227.53,153.49"/>
    </edge>
    <edge id=":5221797993_0" function="internal">
        <lane id=":5221797993_0_0" index="0" disallow="tram rail_urban rail rail_electric rail_fast ship" speed="11.11" length="0.17" shape="224.43,147.31 224.47,147.15"/>
        <lane id=":5221797993_0_1" index="1" disallow="tram rail_urban rail rail_electric rail_fast ship" speed="11.11" length="0.17" shape="221.33,146.49 221.38,146.32"/>
    </edge>
    <edge id=":5221976261_0" function="internal">
        <lane id=":5221976261_0_0" index="0" disallow="tram rail_urban rail rail_electric rail_fast ship" speed="22.22" length="0.10" shape="45.85,108.13 45.85,108.13"/>
        <lane id=":5221976261_0_1" index="1" disallow="tram rail_urban rail rail_electric rail_fast ship" speed="22.22" length="0.10" shape="46.67,105.04 46.67,105.04"/>
    </edge>
    <edge id=":645360789_0" function="internal">
        <lane id=":645360789_0_0" index="0" disallow="tram rail_urban rail rail_electric rail_fast ship" speed="6.18" length="8.07" shape="226.51,156.53 224.57,156.37 222.98,157.04 221.74,158.52 220.85,160.82"/>
    </edge>
    <edge id=":645360789_1" function="internal">
        <lane id=":645360789_1_0" index="0" disallow="tram rail_urban rail rail_electric rail_fast ship" speed="22.22" length="13.19" shape="226.51,156.53 213.77,153.12"/>
        <lane id=":645360789_1_1" index="1" disallow="tram rail_urban rail rail_electric rail_fast ship" speed="22.22" length="13.19" shape="227.34,153.44 214.60,150.03"/>
    </edge>
    <edge id=":645360789_3" function="internal">
        <lane id=":645360789_3_0" index="0" disallow="tram rail_urban rail rail_electric rail_fast ship" speed="11.11" length="13.94" shape="224.42,147.34 220.85,160.82"/>
        <lane id=":645360789_3_1" index="1" disallow="tram rail_urban rail rail_electric rail_fast ship" speed="11.11" length="13.94" shape="221.33,146.52 217.76,160.00"/>
    </edge>
    <edge id=":645360789_5" function="internal">
        <lane id=":645360789_5_0" index="0" disallow="tram rail_urban rail rail_electric rail_fast ship" speed="6.38" length="8.66" shape="221.33,146.52 220.41,148.60 218.99,149.88 217.05,150.36 214.60,150.03"/>
    </edge>
    <edge id=":645360804_0" function="internal">
        <lane id=":645360804_0_0" index="0" disallow="tram rail_urban rail rail_electric rail_fast ship" speed="22.22" length="13.46" shape="401.15,203.30 388.14,199.82"/>
        <lane id=":645360804_0_1" index="1" disallow="tram rail_urban rail rail_electric rail_fast ship" speed="22.22" length="13.46" shape="401.98,200.20 388.97,196.73"/>
    </edge>
    <edge id=":645360804_2" function="internal">
        <lane id=":645360804_2_0" index="0" disallow="tram rail_urban rail rail_electric rail_fast ship" speed="6.24" length="8.26" shape="401.98,200.20 400.11,199.34 398.99,197.96 398.61,196.04 398.98,193.60"/>
    </edge>
    <edge id=":645360804_3" function="internal">
        <lane id=":645360804_3_0" index="0" disallow="tram rail_urban rail rail_electric rail_fast ship" speed="6.35" length="8.57" shape="392.23,206.12 392.47,203.91 391.87,202.12 390.43,200.76 388.14,199.82"/>
        <lane id=":645360804_3_1" index="1" disallow="tram rail_urban rail rail_electric rail_fast ship" speed="7.87" length="13.75" shape="395.31,206.97 395.73,203.35 394.82,200.43 392.57,198.23 388.97,196.73"/>
    </edge>
    <edge id=":645360804_5" function="internal">
        <lane id=":645360804_5_0" index="0" disallow="tram rail_urban rail rail_electric rail_fast ship" speed="13.89" length="14.35" shape="395.31,206.97 395.93,202.82 395.60,199.86 395.28,196.90 395.90,192.75"/>
    </edge>
    <edge id=":647407807_0" function="internal">
        <lane id=":647407807_0_0" index="0" disallow="tram rail_urban rail rail_electric rail_fast ship" speed="6.11" length="7.82" shape="184.32,292.72 184.21,294.53 184.91,296.02 186.41,297.19 188.72,298.05"/>
    </edge>
    <edge id=":647407807_1" function="internal">
        <lane id=":647407807_1_0" index="0" disallow="tram rail_urban rail rail_electric rail_fast ship" speed="12.50" length="12.93" shape="184.32,292.72 181.05,305.23"/>
    </edge>
    <edge id=":647407807_2" function="internal">
        <lane id=":647407807_2_0" index="0" disallow="tram rail_urban rail rail_electric rail_fast ship" speed="16.67" length="11.11" shape="177.85,295.47 188.72,298.05"/>
        <lane id=":647407807_2_1" index="1" disallow="tram rail_urban rail rail_electric rail_fast ship" speed="16.67" length="11.11" shape="177.17,298.60 187.92,301.15"/>
    </edge>
    <edge id=":647407807_4" function="internal">
        <lane id=":647407807_4_0" index="0" disallow="tram rail_urban rail rail_electric rail_fast ship" speed="6.35" length="8.85" shape="177.17,298.60 179.41,299.45 180.81,300.83 181.35,302.76 181.05,305.23"/>
    </edge>
    <edge id=":647407829_0" function="internal">
        <lane id=":647407829_0_0" index="0" disallow="tram rail_urban rail rail_electric rail_fast ship" speed="7.01" length="10.45" shape="350.13,338.26 353.28,338.68 355.75,338.21 357.53,336.85 358.62,334.58"/>
    </edge>
    <edge id=":647407829_1" function="internal">
        <lane id=":647407829_1_0" index="0" disallow="tram rail_urban rail rail_electric rail_fast ship" speed="22.22" length="14.05" shape="350.13,338.26 363.76,341.31"/>
        <lane id=":647407829_1_1" index="1" disallow="tram rail_urban rail rail_electric rail_fast ship" speed="22.22" length="14.05" shape="349.35,341.37 363.14,344.44"/>
    </edge>
    <edge id=":647407829_3" function="internal">
        <lane id=":647407829_3_0" index="0" disallow="tram rail_urban rail rail_electric rail_fast ship" speed="13.89" length="13.13" shape="353.63,346.70 354.95,342.82 356.27,340.08 357.52,337.62 358.62,334.58"/>
    </edge>
    <edge id=":647407829_4" function="internal">
        <lane id=":647407829_4_0" index="0" disallow="tram rail_urban rail rail_electric rail_fast ship" speed="6.32" length="7.96" shape="356.72,347.54 357.54,345.81 358.88,344.71 360.75,344.26 363.14,344.44"/>
    </edge>
    <edge id=":6685674726_0" function="internal">
        <lane id=":6685674726_0_0" index="0" allow="pedestrian delivery bicycle" speed="5.15" length="5.14" shape="182.44,144.73 181.09,144.58 179.99,144.92 179.15,145.74 178.55,147.06"/>
    </edge>
    <edge id=":6685674726_1" function="internal">
        <lane id=":6685674726_1_0" index="0" disallow="tram rail_urban rail rail_electric rail_fast ship" speed="22.22" length="9.40" shape="182.44,144.73 173.36,142.29"/>
        <lane id=":6685674726_1_1" index="1" disallow="tram rail_urban rail rail_electric rail_fast ship" speed="22.22" length="9.40" shape="183.27,141.64 174.19,139.20"/>
    </edge>
    <edge id=":6685674726_3" function="internal">
        <lane id=":6685674726_3_0" index="0" allow="pedestrian delivery bicycle" speed="5.00" length="5.04" shape="175.49,146.13 175.70,144.76 175.41,143.66 174.63,142.84 173.36,142.29"/>
    </edge>
    <edge id=":6685674726_4" function="internal">
        <lane id=":6685674726_4_0" index="0" allow="pedestrian delivery bicycle" speed="3.65" length="4.67" shape="175.49,146.13 176.60,145.21 177.48,145.06 178.13,145.68 178.55,147.06"/>
    </edge>
    <edge id=":9072217829_0" function="internal">
        <lane id=":9072217829_0_0" index="0" disallow="tram rail_urban rail rail_electric rail_fast ship" speed="13.89" length="8.21" shape="386.95,231.36 387.35,228.99 387.24,227.30 387.14,225.60 387.53,223.23"/>
        <lane id=":9072217829_0_1" index="1" disallow="tram rail_urban rail rail_electric rail_fast ship" speed="13.89" length="8.21" shape="386.95,231.36 387.83,229.12 388.78,227.72 389.74,226.32 390.62,224.07"/>
    </edge>
    <edge id=":9139610069_0" function="internal">
        <lane id=":9139610069_0_0" index="0" disallow="tram rail_urban rail rail_electric rail_fast ship" speed="11.11" length="8.21" shape="216.40,165.16 216.03,167.54 216.15,169.23 216.27,170.92 215.90,173.30"/>
    </edge>

    <edge id="-376552156" from="3995880153" to="3799619815" priority="1" type="highway.service" shape="165.11,365.56 156.66,363.08 91.03,344.15">
        <lane id="-376552156_0" index="0" allow="pedestrian delivery bicycle" speed="5.56" length="73.92" shape="161.60,366.20 156.21,364.62 90.59,345.68"/>
    </edge>
    <edge id="-381385320" from="6685674726" to="3845893464" priority="1" type="highway.service" shape="178.42,141.99 176.30,148.94 170.02,156.99 159.12,198.49">
        <lane id="-381385320_0" index="0" allow="pedestrian delivery bicycle" speed="5.56" length="55.51" shape="178.55,147.06 177.74,149.69 171.49,157.71 160.67,198.90"/>
    </edge>
    <edge id="-381385342" from="3845893218" to="3845893529" priority="1" type="highway.service" shape="50.92,262.76 52.49,256.32 57.30,235.23 48.87,231.40 54.82,201.06">
        <lane id="-381385342_0" index="0" allow="pedestrian delivery bicycle" speed="5.56" length="63.53" shape="50.50,257.71 50.93,255.96 55.45,236.15 47.06,232.33 53.25,200.75"/>
    </edge>
    <edge id="-381930435" from="4017965087" to="3851295066" priority="1" type="highway.service" shape="562.53,300.86 555.21,299.11 502.90,286.61 498.03,303.09 452.90,291.41">
        <lane id="-381930435_0" index="0" allow="pedestrian delivery bicycle" speed="5.56" length="125.17" shape="562.16,302.42 554.84,300.66 504.00,288.52 499.13,305.03 452.50,292.96"/>
    </edge>
    <edge id="1149532855" from="10693954720" to="10693954719" priority="1" type="highway.steps" spreadType="center">
        <lane id="1149532855_0" index="0" allow="pedestrian" speed="1.39" length="0.20" width="2.00" shape="169.43,135.66 169.38,135.86"/>
    </edge>
    <edge id="1149532856" from="10693954723" to="10693954732" priority="1" type="highway.steps" spreadType="center">
        <lane id="1149532856_0" index="0" allow="pedestrian" speed="1.39" length="0.20" width="2.00" shape="125.17,123.43 125.12,123.63"/>
    </edge>
    <edge id="1149532857" from="10693954721" to="10693954722" priority="1" type="highway.steps" spreadType="center">
        <lane id="1149532857_0" index="0" allow="pedestrian" speed="1.39" length="3.34" width="2.00" shape="148.82,123.06 147.99,126.30"/>
    </edge>
    <edge id="1149532859#0" from="10693954720" to="10693954722" priority="1" type="highway.footway" spreadType="center">
        <lane id="1149532859#0_0" index="0" allow="pedestrian" speed="2.78" length="18.08" width="2.00" shape="167.34,133.72 149.80,129.33"/>
    </edge>
    <edge id="1149532859#1" from="10693954722" to="10693954723" priority="1" type="highway.footway" spreadType="center">
        <lane id="1149532859#1_0" index="0" allow="pedestrian" speed="2.78" length="19.33" width="2.00" shape="144.95,128.12 126.20,123.44"/>
    </edge>
    <edge id="1152298743#0" from="2037075267" to="10718046348" priority="1" type="highway.footway" spreadType="center">
        <lane id="1152298743#0_0" index="0" allow="pedestrian" speed="2.78" length="0.20" width="2.00" shape="416.28,350.37 416.37,350.19"/>
    </edge>
    <edge id="1152298743#1" from="10718046348" to="10718046344" priority="1" type="highway.footway" spreadType="center">
        <lane id="1152298743#1_0" index="0" allow="pedestrian" speed="2.78" length="8.78" width="2.00" shape="418.57,350.83 427.16,352.64"/>
    </edge>
    <edge id="1152298743#2" from="10718046344" to="10718046340" priority="1" type="highway.footway" spreadType="center">
        <lane id="1152298743#2_0" index="0" allow="pedestrian" speed="2.78" length="1.27" width="2.00" shape="432.05,353.68 433.29,353.94"/>
    </edge>
    <edge id="1152298743#3" from="10718046340" to="10718046338" priority="1" type="highway.footway" spreadType="center">
        <lane id="1152298743#3_0" index="0" allow="pedestrian" speed="2.78" length="5.87" width="2.00" shape="438.20,354.97 443.95,356.18"/>
    </edge>
    <edge id="1152298743#4" from="10718046338" to="10718046327" priority="1" type="highway.footway" spreadType="center">
        <lane id="1152298743#4_0" index="0" allow="pedestrian" speed="2.78" length="0.20" width="2.00" shape="446.39,356.81 446.34,357.00"/>
    </edge>
    <edge id="1152298744" from="10718046338" to="10718046337" priority="1" type="highway.steps" spreadType="center">
        <lane id="1152298744_0" index="0" allow="pedestrian" speed="1.39" length="13.56" width="2.00" shape="447.21,354.46 451.72,341.68"/>
    </edge>
    <edge id="1152298745" from="10718046340" to="10718046339" priority="1" type="highway.steps" spreadType="center">
        <lane id="1152298745_0" index="0" allow="pedestrian" speed="1.39" length="15.97" width="2.00" shape="436.46,351.95 441.44,336.78"/>
    </edge>
    <edge id="1152298746" from="10718046344" to="10718046341" priority="1" type="highway.steps" spreadType="center" shape="429.59,353.16 431.36,345.59 427.66,342.78 425.79,339.76">
        <lane id="1152298746_0" index="0" allow="pedestrian" speed="1.39" length="13.45" width="2.00" shape="430.16,350.70 431.36,345.59 427.66,342.78 425.79,339.76"/>
    </edge>
    <edge id="1152298747" from="10718046348" to="10718046345" priority="1" type="highway.steps" spreadType="center" shape="416.29,350.35 416.45,344.57 414.46,340.65 413.79,336.24">
        <lane id="1152298747_0" index="0" allow="pedestrian" speed="1.39" length="12.30" width="2.00" shape="416.35,348.01 416.45,344.57 414.46,340.65 413.79,336.24"/>
    </edge>
    <edge id="193133882" from="2036500639" to="9152069187" priority="3" type="highway.residential" spreadType="center" shape="270.41,320.02 268.94,326.29 256.58,379.05">
        <lane id="193133882_0" index="0" disallow="tram rail_urban rail rail_electric rail_fast ship" speed="13.89" length="53.46" shape="268.78,327.00 256.58,379.05"/>
    </edge>
    <edge id="226668206#0" from="2036500677" to="3845893218" priority="10" type="highway.tertiary" spreadType="center" shape="0.00,248.49 5.11,249.92 50.92,262.76">
        <lane id="226668206#0_0" index="0" disallow="tram rail_urban rail rail_electric rail_fast ship" speed="11.11" length="48.07" shape="0.43,246.95 5.54,248.38 46.72,259.92"/>
        <lane id="226668206#0_1" index="1" disallow="tram rail_urban rail rail_electric rail_fast ship" speed="11.11" length="48.07" shape="-0.43,250.03 4.68,251.46 45.85,263.01"/>
    </edge>
    <edge id="226668206#1" from="3845893218" to="3995883059" priority="10" type="highway.tertiary" spreadType="center" shape="50.92,262.76 128.88,284.63 132.23,285.56 177.40,297.01">
        <lane id="226668206#1_0" index="0" disallow="tram rail_urban rail rail_electric rail_fast ship" speed="11.11" length="126.34" shape="55.77,262.46 129.31,283.09 132.65,284.02 177.68,295.43"/>
        <lane id="226668206#1_1" index="1" disallow="tram rail_urban rail rail_electric rail_fast ship" speed="11.11" length="126.34" shape="54.91,265.54 128.44,286.17 131.82,287.11 176.89,298.54"/>
    </edge>
    <edge id="226668206#2" from="3995883059" to="647407807" priority="10" type="highway.tertiary" spreadType="center">
        <lane id="226668206#2_0" index="0" disallow="tram rail_urban rail rail_electric rail_fast ship" speed="11.11" length="0.22" shape="177.63,295.43 177.85,295.47"/>
        <lane id="226668206#2_1" index="1" disallow="tram rail_urban rail rail_electric rail_fast ship" speed="11.11" length="0.22" shape="176.96,298.56 177.17,298.60"/>
    </edge>
    <edge id="231292993" from="647407829" to="9072217829" priority="3" type="highway.residential" spreadType="center" shape="356.69,341.54 358.27,335.87 388.01,227.51">